509

Cd -6.44846291 -6.20503634 -7.99564605
Cd -2.14948764 -6.20503634 -7.99564605
Cd 2.14948764 -6.20503634 -7.99564605
Cd 6.44846291 -6.20503634 -7.99564605
Cd -8.59795056 -2.48201453 -7.99564605
Cd -4.29897528 -2.48201453 -7.99564605
Cd -0.00000000 -2.48201453 -7.99564605
Cd -2.14948764 -3.72302180 -11.50574467
Cd 4.29897528 -2.48201453 -7.99564605
Cd 2.14948764 -3.72302180 -11.50574467
Cd 8.59795056 -2.48201453 -7.99564605
Cd -6.44846291 1.24100727 -7.99564605
Cd -2.14948764 1.24100727 -7.99564605
Cd -4.29897528 -0.00000000 -11.50574467
Cd 2.14948764 1.24100727 -7.99564605
Cd -0.00000000 -0.00000000 -11.50574467
Cd 6.44846291 1.24100727 -7.99564605
Cd 4.29897528 -0.00000000 -11.50574467
Cd -4.29897528 4.96402907 -7.99564605
Cd -0.00000000 4.96402907 -7.99564605
Cd -2.14948764 3.72302180 -11.50574467
Cd 4.29897528 4.96402907 -7.99564605
Cd 2.14948764 3.72302180 -11.50574467
Cd -2.14948764 8.68705087 -7.99564605
Cd 2.14948764 8.68705087 -7.99564605
Cd -4.29897528 -9.92805813 -0.97544882
Cd -0.00000000 -9.92805813 -0.97544882
Cd -2.14948764 -11.16906540 -4.48554743
Cd 4.29897528 -9.92805813 -0.97544882
Cd 2.14948764 -11.16906540 -4.48554743
Cd -10.74743819 -6.20503634 -0.97544882
Cd -6.44846291 -6.20503634 -0.97544882
Cd -8.59795056 -7.44604360 -4.48554743
Cd -2.14948764 -6.20503634 -0.97544882
Cd -4.29897528 -7.44604360 -4.48554743
Cd 2.14948764 -6.20503634 -0.97544882
Cd -0.00000000 -7.44604360 -4.48554743
Cd 6.44846291 -6.20503634 -0.97544882
Cd 4.29897528 -7.44604360 -4.48554743
Cd 10.74743819 -6.20503634 -0.97544882
Cd 8.59795056 -7.44604360 -4.48554743
Cd -8.59795056 -2.48201453 -0.97544882
Cd -10.74743819 -3.72302180 -4.48554743
Cd -4.29897528 -2.48201453 -0.97544882
Cd -6.44846291 -3.72302180 -4.48554743
Cd -0.00000000 -2.48201453 -0.97544882
Cd -2.14948764 -3.72302180 -4.48554743
Cd 4.29897528 -2.48201453 -0.97544882
Cd 2.14948764 -3.72302180 -4.48554743
Cd 8.59795056 -2.48201453 -0.97544882
Cd 6.44846291 -3.72302180 -4.48554743
Cd 10.74743819 -3.72302180 -4.48554743
Cd -10.74743819 1.24100727 -0.97544882
Cd -6.44846291 1.24100727 -0.97544882
Cd -8.59795056 -0.00000000 -4.48554743
Cd -2.14948764 1.24100727 -0.97544882
Cd -4.29897528 -0.00000000 -4.48554743
Cd 2.14948764 1.24100727 -0.97544882
Cd -0.00000000 -0.00000000 -4.48554743
Cd 6.44846291 1.24100727 -0.97544882
Cd 4.29897528 -0.00000000 -4.48554743
Cd 10.74743819 1.24100727 -0.97544882
Cd 8.59795056 -0.00000000 -4.48554743
Cd -8.59795056 4.96402907 -0.97544882
Cd -10.74743819 3.72302180 -4.48554743
Cd -4.29897528 4.96402907 -0.97544882
Cd -6.44846291 3.72302180 -4.48554743
Cd -0.00000000 4.96402907 -0.97544882
Cd -2.14948764 3.72302180 -4.48554743
Cd 4.29897528 4.96402907 -0.97544882
Cd 2.14948764 3.72302180 -4.48554743
Cd 8.59795056 4.96402907 -0.97544882
Cd 6.44846291 3.72302180 -4.48554743
Cd 10.74743819 3.72302180 -4.48554743
Cd -6.44846291 8.68705087 -0.97544882
Cd -8.59795056 7.44604360 -4.48554743
Cd -2.14948764 8.68705087 -0.97544882
Cd -4.29897528 7.44604360 -4.48554743
Cd 2.14948764 8.68705087 -0.97544882
Cd -0.00000000 7.44604360 -4.48554743
Cd 6.44846291 8.68705087 -0.97544882
Cd 4.29897528 7.44604360 -4.48554743
Cd 8.59795056 7.44604360 -4.48554743
Cd -0.00000000 12.41007266 -0.97544882
Cd -2.14948764 11.16906540 -4.48554743
Cd 2.14948764 11.16906540 -4.48554743
Cd -4.29897528 -9.92805813 6.04474841
Cd -0.00000000 -9.92805813 6.04474841
Cd -2.14948764 -11.16906540 2.53464979
Cd 4.29897528 -9.92805813 6.04474841
Cd 2.14948764 -11.16906540 2.53464979
Cd -6.44846291 -6.20503634 6.04474841
Cd -8.59795056 -7.44604360 2.53464979
Cd -2.14948764 -6.20503634 6.04474841
Cd -4.29897528 -7.44604360 2.53464979
Cd 2.14948764 -6.20503634 6.04474841
Cd -0.00000000 -7.44604360 2.53464979
Cd 6.44846291 -6.20503634 6.04474841
Cd 4.29897528 -7.44604360 2.53464979
Cd 8.59795056 -7.44604360 2.53464979
Cd -8.59795056 -2.48201453 6.04474841
Cd -10.74743819 -3.72302180 2.53464979
Cd -4.29897528 -2.48201453 6.04474841
Cd -6.44846291 -3.72302180 2.53464979
Cd -0.00000000 -2.48201453 6.04474841
Cd -2.14948764 -3.72302180 2.53464979
Cd 4.29897528 -2.48201453 6.04474841
Cd 2.14948764 -3.72302180 2.53464979
Cd 8.59795056 -2.48201453 6.04474841
Cd 6.44846291 -3.72302180 2.53464979
Cd 10.74743819 -3.72302180 2.53464979
Cd -10.74743819 1.24100727 6.04474841
Cd -6.44846291 1.24100727 6.04474841
Cd -8.59795056 -0.00000000 2.53464979
Cd -2.14948764 1.24100727 6.04474841
Cd -4.29897528 -0.00000000 2.53464979
Cd 2.14948764 1.24100727 6.04474841
Cd -0.00000000 -0.00000000 2.53464979
Cd 6.44846291 1.24100727 6.04474841
Cd 4.29897528 -0.00000000 2.53464979
Cd 10.74743819 1.24100727 6.04474841
Cd 8.59795056 -0.00000000 2.53464979
Cd -8.59795056 4.96402907 6.04474841
Cd -10.74743819 3.72302180 2.53464979
Cd -4.29897528 4.96402907 6.04474841
Cd -6.44846291 3.72302180 2.53464979
Cd -0.00000000 4.96402907 6.04474841
Cd -2.14948764 3.72302180 2.53464979
Cd 4.29897528 4.96402907 6.04474841
Cd 2.14948764 3.72302180 2.53464979
Cd 8.59795056 4.96402907 6.04474841
Cd 6.44846291 3.72302180 2.53464979
Cd 10.74743819 3.72302180 2.53464979
Cd -6.44846291 8.68705087 6.04474841
Cd -8.59795056 7.44604360 2.53464979
Cd -2.14948764 8.68705087 6.04474841
Cd -4.29897528 7.44604360 2.53464979
Cd 2.14948764 8.68705087 6.04474841
Cd -0.00000000 7.44604360 2.53464979
Cd 6.44846291 8.68705087 6.04474841
Cd 4.29897528 7.44604360 2.53464979
Cd 8.59795056 7.44604360 2.53464979
Cd -2.14948764 11.16906540 2.53464979
Cd 2.14948764 11.16906540 2.53464979
Cd -4.29897528 -7.44604360 9.55484703
Cd -0.00000000 -7.44604360 9.55484703
Cd 4.29897528 -7.44604360 9.55484703
Cd -6.44846291 -3.72302180 9.55484703
Cd -2.14948764 -3.72302180 9.55484703
Cd 2.14948764 -3.72302180 9.55484703
Cd 6.44846291 -3.72302180 9.55484703
Cd -8.59795056 -0.00000000 9.55484703
Cd -4.29897528 -0.00000000 9.55484703
Cd -0.00000000 -0.00000000 9.55484703
Cd 4.29897528 -0.00000000 9.55484703
Cd 8.59795056 -0.00000000 9.55484703
Cd -6.44846291 3.72302180 9.55484703
Cd -2.14948764 3.72302180 9.55484703
Cd 2.14948764 3.72302180 9.55484703
Cd 6.44846291 3.72302180 9.55484703
Cd -4.29897528 7.44604360 9.55484703
Cd -0.00000000 7.44604360 9.55484703
Cd 4.29897528 7.44604360 9.55484703
Se -2.14948764 -6.20503634 -10.62822001
Se 2.14948764 -6.20503634 -10.62822001
Se -4.29897528 -2.48201453 -10.62822001
Se -0.00000000 -2.48201453 -10.62822001
Se 4.29897528 -2.48201453 -10.62822001
Se -6.44846291 1.24100727 -10.62822001
Se -2.14948764 1.24100727 -10.62822001
Se 2.14948764 1.24100727 -10.62822001
Se 6.44846291 1.24100727 -10.62822001
Se -4.29897528 4.96402907 -10.62822001
Se -0.00000000 4.96402907 -10.62822001
Se 4.29897528 4.96402907 -10.62822001
Se -4.29897528 -9.92805813 -3.60802278
Se -0.00000000 -9.92805813 -3.60802278
Se 4.29897528 -9.92805813 -3.60802278
Se -6.44846291 -6.20503634 -3.60802278
Se -8.59795056 -7.44604360 -7.11812139
Se -2.14948764 -6.20503634 -3.60802278
Se -4.29897528 -7.44604360 -7.11812139
Se 2.14948764 -6.20503634 -3.60802278
Se -0.00000000 -7.44604360 -7.11812139
Se 6.44846291 -6.20503634 -3.60802278
Se 4.29897528 -7.44604360 -7.11812139
Se 8.59795056 -7.44604360 -7.11812139
Se -8.59795056 -2.48201453 -3.60802278
Se -10.74743819 -3.72302180 -7.11812139
Se -4.29897528 -2.48201453 -3.60802278
Se -6.44846291 -3.72302180 -7.11812139
Se -0.00000000 -2.48201453 -3.60802278
Se -2.14948764 -3.72302180 -7.11812139
Se 4.29897528 -2.48201453 -3.60802278
Se 2.14948764 -3.72302180 -7.11812139
Se 8.59795056 -2.48201453 -3.60802278
Se 6.44846291 -3.72302180 -7.11812139
Se 10.74743819 -3.72302180 -7.11812139
Se -10.74743819 1.24100727 -3.60802278
Se -6.44846291 1.24100727 -3.60802278
Se -8.59795056 -0.00000000 -7.11812139
Se -2.14948764 1.24100727 -3.60802278
Se -4.29897528 -0.00000000 -7.11812139
Se 2.14948764 1.24100727 -3.60802278
Se -0.00000000 -0.00000000 -7.11812139
Se 6.44846291 1.24100727 -3.60802278
Se 4.29897528 -0.00000000 -7.11812139
Se 10.74743819 1.24100727 -3.60802278
Se 8.59795056 -0.00000000 -7.11812139
Se -8.59795056 4.96402907 -3.60802278
Se -4.29897528 4.96402907 -3.60802278
Se -6.44846291 3.72302180 -7.11812139
Se -0.00000000 4.96402907 -3.60802278
Se -2.14948764 3.72302180 -7.11812139
Se 4.29897528 4.96402907 -3.60802278
Se 2.14948764 3.72302180 -7.11812139
Se 8.59795056 4.96402907 -3.60802278
Se 6.44846291 3.72302180 -7.11812139
Se -6.44846291 8.68705087 -3.60802278
Se -2.14948764 8.68705087 -3.60802278
Se -4.29897528 7.44604360 -7.11812139
Se 2.14948764 8.68705087 -3.60802278
Se -0.00000000 7.44604360 -7.11812139
Se 6.44846291 8.68705087 -3.60802278
Se 4.29897528 7.44604360 -7.11812139
Se -2.14948764 11.16906540 -7.11812139
Se 2.14948764 11.16906540 -7.11812139
Se -4.29897528 -9.92805813 3.41217445
Se -0.00000000 -9.92805813 3.41217445
Se -2.14948764 -11.16906540 -0.09792417
Se 4.29897528 -9.92805813 3.41217445
Se 2.14948764 -11.16906540 -0.09792417
Se -10.74743819 -6.20503634 3.41217445
Se -6.44846291 -6.20503634 3.41217445
Se -8.59795056 -7.44604360 -0.09792417
Se -2.14948764 -6.20503634 3.41217445
Se -4.29897528 -7.44604360 -0.09792417
Se 2.14948764 -6.20503634 3.41217445
Se -0.00000000 -7.44604360 -0.09792417
Se 6.44846291 -6.20503634 3.41217445
Se 4.29897528 -7.44604360 -0.09792417
Se 10.74743819 -6.20503634 3.41217445
Se 8.59795056 -7.44604360 -0.09792417
Se -8.59795056 -2.48201453 3.41217445
Se -10.74743819 -3.72302180 -0.09792417
Se -4.29897528 -2.48201453 3.41217445
Se -6.44846291 -3.72302180 -0.09792417
Se -0.00000000 -2.48201453 3.41217445
Se -2.14948764 -3.72302180 -0.09792417
Se 4.29897528 -2.48201453 3.41217445
Se 2.14948764 -3.72302180 -0.09792417
Se 8.59795056 -2.48201453 3.41217445
Se 6.44846291 -3.72302180 -0.09792417
Se 10.74743819 -3.72302180 -0.09792417
Se -10.74743819 1.24100727 3.41217445
Se -6.44846291 1.24100727 3.41217445
Se -8.59795056 -0.00000000 -0.09792417
Se -2.14948764 1.24100727 3.41217445
Se -4.29897528 -0.00000000 -0.09792417
Se 2.14948764 1.24100727 3.41217445
Se -0.00000000 -0.00000000 -0.09792417
Se 6.44846291 1.24100727 3.41217445
Se 4.29897528 -0.00000000 -0.09792417
Se 10.74743819 1.24100727 3.41217445
Se 8.59795056 -0.00000000 -0.09792417
Se -8.59795056 4.96402907 3.41217445
Se -10.74743819 3.72302180 -0.09792417
Se -4.29897528 4.96402907 3.41217445
Se -6.44846291 3.72302180 -0.09792417
Se -0.00000000 4.96402907 3.41217445
Se -2.14948764 3.72302180 -0.09792417
Se 4.29897528 4.96402907 3.41217445
Se 2.14948764 3.72302180 -0.09792417
Se 8.59795056 4.96402907 3.41217445
Se 6.44846291 3.72302180 -0.09792417
Se 10.74743819 3.72302180 -0.09792417
Se -6.44846291 8.68705087 3.41217445
Se -8.59795056 7.44604360 -0.09792417
Se -2.14948764 8.68705087 3.41217445
Se -4.29897528 7.44604360 -0.09792417
Se 2.14948764 8.68705087 3.41217445
Se -0.00000000 7.44604360 -0.09792417
Se 6.44846291 8.68705087 3.41217445
Se 4.29897528 7.44604360 -0.09792417
Se 8.59795056 7.44604360 -0.09792417
Se -0.00000000 12.41007266 3.41217445
Se -2.14948764 11.16906540 -0.09792417
Se 2.14948764 11.16906540 -0.09792417
Se -2.14948764 -11.16906540 6.92227306
Se 2.14948764 -11.16906540 6.92227306
Se -2.14948764 -6.20503634 10.43237168
Se -4.29897528 -7.44604360 6.92227306
Se 2.14948764 -6.20503634 10.43237168
Se -0.00000000 -7.44604360 6.92227306
Se 4.29897528 -7.44604360 6.92227306
Se -4.29897528 -2.48201453 10.43237168
Se -6.44846291 -3.72302180 6.92227306
Se -0.00000000 -2.48201453 10.43237168
Se -2.14948764 -3.72302180 6.92227306
Se 4.29897528 -2.48201453 10.43237168
Se 2.14948764 -3.72302180 6.92227306
Se 6.44846291 -3.72302180 6.92227306
Se -6.44846291 1.24100727 10.43237168
Se -8.59795056 -0.00000000 6.92227306
Se -2.14948764 1.24100727 10.43237168
Se -4.29897528 -0.00000000 6.92227306
Se 2.14948764 1.24100727 10.43237168
Se -0.00000000 -0.00000000 6.92227306
Se 6.44846291 1.24100727 10.43237168
Se 4.29897528 -0.00000000 6.92227306
Se 8.59795056 -0.00000000 6.92227306
Se -10.74743819 3.72302180 6.92227306
Se -4.29897528 4.96402907 10.43237168
Se -6.44846291 3.72302180 6.92227306
Se -0.00000000 4.96402907 10.43237168
Se -2.14948764 3.72302180 6.92227306
Se 4.29897528 4.96402907 10.43237168
Se 2.14948764 3.72302180 6.92227306
Se 6.44846291 3.72302180 6.92227306
Se 10.74743819 3.72302180 6.92227306
Se -8.59795056 7.44604360 6.92227306
Se -4.29897528 7.44604360 6.92227306
Se -0.00000000 7.44604360 6.92227306
Se 4.29897528 7.44604360 6.92227306
Se 8.59795056 7.44604360 6.92227306
H -6.44846291 -6.20503634 -9.44356173
H 6.44846291 -6.20503634 -9.44356173
H -8.59795056 -2.48201453 -9.44356173
H -2.14948764 -3.72302180 -12.95366035
H 2.14948763 -3.72302180 -12.95366035
H 8.59795056 -2.48201453 -9.44356173
H -4.29897528 -0.00000000 -12.95366035
H -0.00000000 -0.00000000 -12.95366035
H 4.29897528 -0.00000000 -12.95366035
H -2.14948764 3.72302180 -12.95366035
H 2.14948763 3.72302180 -12.95366035
H -2.14948764 8.68705087 -9.44356173
H 2.14948764 8.68705087 -9.44356173
H -5.48119348 -10.61061213 -0.49281026
H -2.14948764 -11.16906540 -5.93346311
H -2.14948764 -12.53417340 -4.00290887
H 5.48119348 -10.61061213 -0.49281026
H 2.14948764 -11.16906540 -5.93346311
H 2.14948764 -12.53417339 -4.00290887
H -11.92965639 -6.88759033 -0.49281026
H -10.74743819 -6.20503634 -2.42336449
H -9.78016876 -6.76348960 -4.00290887
H -8.59795056 -8.81115159 -4.00290887
H 10.74743819 -6.20503634 -2.42336449
H 11.92965639 -6.88759033 -0.49281026
H 8.59795056 -8.81115159 -4.00290887
H 9.78016876 -6.76348960 -4.00290887
H -11.92965639 -3.04046780 -4.00290887
H -10.74743819 -5.08812979 -4.00290887
H 10.74743819 -5.08812979 -4.00290887
H 11.92965639 -3.04046780 -4.00290887
H -11.92965640 0.55845327 -0.49281026
H 11.92965640 0.55845327 -0.49281026
H -11.92965639 4.40557579 -4.00290887
H -10.74743819 3.72302180 -5.93346311
H 10.74743819 3.72302180 -5.93346311
H 11.92965639 4.40557579 -4.00290887
H -6.44846291 10.05215886 -0.49281026
H -9.78016876 8.12859759 -4.00290887
H -8.59795056 7.44604360 -5.93346311
H 6.44846291 10.05215886 -0.49281026
H 8.59795056 7.44604360 -5.93346311
H 9.78016876 8.12859759 -4.00290887
H -0.00000000 13.77518066 -0.49281026
H -0.00000000 12.41007266 -2.42336449
H -0.96726943 11.85161940 -4.00290887
H -3.33170584 11.85161940 -4.00290887
H 3.33170584 11.85161940 -4.00290887
H 0.96726943 11.85161940 -4.00290887
H -5.48119348 -10.61061213 6.52738697
H -2.14948764 -12.53417340 3.01728835
H 5.48119348 -10.61061213 6.52738697
H 2.14948764 -12.53417340 3.01728835
H -7.63068111 -6.88759033 6.52738697
H -8.59795056 -8.81115159 3.01728835
H 7.63068111 -6.88759033 6.52738697
H 8.59795056 -8.81115159 3.01728835
H -9.78016876 -3.16456853 6.52738697
H -11.92965640 -3.04046780 3.01728835
H 9.78016876 -3.16456853 6.52738697
H 11.92965640 -3.04046780 3.01728835
H -11.92965639 0.55845327 6.52738697
H 11.92965639 0.55845327 6.52738697
H -11.92965639 4.40557580 3.01728835
H 11.92965639 4.40557580 3.01728835
H -6.44846291 10.05215886 6.52738697
H -9.78016876 8.12859760 3.01728835
H -2.14948764 10.05215886 6.52738697
H 2.14948764 10.05215886 6.52738697
H 6.44846291 10.05215886 6.52738697
H 9.78016876 8.12859760 3.01728835
H -3.33170584 11.85161940 3.01728835
H 3.33170584 11.85161940 3.01728835
H -5.48119348 -6.76348960 10.03748559
H -4.29897528 -8.81115159 10.03748559
H -0.00000000 -8.81115159 10.03748559
H 4.29897528 -8.81115159 10.03748559
H 5.48119348 -6.76348960 10.03748559
H -7.63068112 -3.04046780 10.03748559
H -6.44846291 -5.08812979 10.03748559
H 6.44846291 -5.08812979 10.03748559
H 7.63068112 -3.04046780 10.03748559
H -9.78016876 0.68255400 10.03748559
H -8.59795056 -1.36510799 10.03748559
H 8.59795056 -1.36510799 10.03748559
H 9.78016876 0.68255400 10.03748559
H -7.63068111 4.40557579 10.03748559
H 7.63068111 4.40557579 10.03748559
H -3.11675708 8.12859759 10.03748559
H -5.48119348 8.12859759 10.03748559
H 1.18221820 8.12859759 10.03748559
H -1.18221820 8.12859759 10.03748559
H 5.48119348 8.12859759 10.03748559
H 3.11675708 8.12859759 10.03748559
H -2.68685955 -6.51528815 -10.84760117
H -1.61211573 -6.51528815 -10.84760117
H 1.61211573 -6.51528815 -10.84760117
H 2.68685955 -6.51528815 -10.84760117
H -4.94382157 -2.85431671 -10.89147741
H 4.94382157 -2.85431671 -10.89147741
H -6.44846291 1.86151090 -10.84760117
H -6.98583482 0.93075545 -10.84760117
H 6.98583482 0.93075545 -10.84760117
H 6.44846291 1.86151090 -10.84760117
H -4.29897528 5.58453270 -10.84760117
H -4.83634719 4.65377725 -10.84760117
H -0.00000000 5.70863343 -10.89147741
H 4.83634719 4.65377725 -10.84760117
H 4.29897528 5.58453270 -10.84760117
H -4.94382157 -10.30036031 -3.87128018
H 4.94382157 -10.30036031 -3.87128018
H -8.59795056 -8.06654723 -7.33750256
H -9.13532247 -7.13579178 -7.33750256
H -4.29897528 -8.19064796 -7.38137879
H -0.00000000 -8.19064796 -7.38137879
H 4.29897528 -8.19064796 -7.38137879
H 9.13532247 -7.13579178 -7.33750256
H 8.59795056 -8.06654723 -7.33750256
H -10.74743819 -4.34352543 -7.33750256
H -11.28481010 -3.41276998 -7.33750256
H 11.28481010 -3.41276998 -7.33750256
H 10.74743819 -4.34352543 -7.33750256
H -11.39228449 0.86870509 -3.87128018
H -9.24279685 0.37230218 -7.38137879
H 11.39228449 0.86870509 -3.87128018
H 9.24279685 0.37230218 -7.38137879
H -7.09330921 4.09532398 -7.38137879
H 7.09330921 4.09532398 -7.38137879
H -6.44846291 9.43165523 -3.87128018
H -4.94382157 7.81834578 -7.38137879
H 6.44846291 9.43165523 -3.87128018
H 4.94382157 7.81834578 -7.38137879
H -2.68685955 11.47931722 -7.33750256
H -1.61211573 11.47931722 -7.33750256
H 1.61211573 11.47931722 -7.33750256
H 2.68685955 11.47931722 -7.33750256
H -4.94382157 -10.30036031 3.14891706
H -2.14948764 -11.91366976 -0.36118156
H 4.94382157 -10.30036031 3.14891706
H 2.14948764 -11.91366976 -0.36118156
H -10.74743819 -6.20503634 4.07031794
H -11.28481010 -6.51528815 3.19279329
H -8.59795056 -8.19064796 -0.36118156
H 11.28481010 -6.51528815 3.19279329
H 10.74743819 -6.20503634 4.07031794
H 8.59795056 -8.19064796 -0.36118156
H -11.39228448 -3.35071962 -0.36118156
H 11.39228448 -3.35071962 -0.36118156
H -11.39228448 0.86870509 3.14891706
H 11.39228448 0.86870509 3.14891706
H -11.39228448 4.09532398 -0.36118156
H 11.39228448 4.09532398 -0.36118156
H -6.44846291 9.43165523 3.14891706
H -9.24279685 7.81834578 -0.36118156
H 6.44846291 9.43165523 3.14891706
H 9.24279685 7.81834578 -0.36118156
H -0.00000000 12.41007266 4.07031794
H -0.00000000 13.03057630 3.19279329
H -2.79433393 11.54136758 -0.36118156
H 2.79433393 11.54136758 -0.36118156
H -2.14948764 -11.78956904 6.70289190
H -2.14948764 -11.16906540 7.58041655
H 2.14948764 -11.78956903 6.70289190
H 2.14948764 -11.16906540 7.58041655
H -2.14948764 -6.20503634 11.22214387
H 2.14948764 -6.20503634 11.22214387
H -4.29897528 -2.48201453 11.22214387
H -0.00000000 -2.48201453 11.22214387
H 4.29897528 -2.48201453 11.22214387
H -6.44846291 1.24100727 11.22214387
H -2.14948764 1.24100727 11.22214387
H 2.14948764 1.24100727 11.22214387
H 6.44846291 1.24100727 11.22214387
H -10.74743819 3.72302180 7.58041655
H -11.28481010 4.03327361 6.70289190
H -4.29897528 4.96402907 11.22214387
H -0.00000000 4.96402907 11.22214387
H 4.29897528 4.96402907 11.22214387
H 11.28481010 4.03327361 6.70289190
H 10.74743819 3.72302180 7.58041655
H -8.59795056 7.44604360 7.58041655
H -9.13532246 7.75629541 6.70289190
H 9.13532246 7.75629541 6.70289190
H 8.59795056 7.44604360 7.58041655
